FoamFile
{
	version	2.0;
	format	binary;
	class	featureEdgeMesh;
	location	"constant/triSurface";
	object	refine.eMesh;
	arch	"LSB;label=32;scalar=64";
}


0
()


0
()
