FoamFile
{
	version	2.0;
	class	dictionary;
	format	ascii;
	location	"constant/solid";
	object	thermophysicalProperties;
}
thermoType
{
	type	heSolidThermo;
	mixture	pureMixture;
	transport	constIso;
	thermo	hConst;
	equationOfState	rhoConst;
	specie	specie;
	energy	sensibleEnthalpy;
}
mixture
{
	specie
	{
		nMoles	1.0;
		molWeight	55.85;
	}
	thermodynamics
	{
		Cp	490.0;
		Hf	0.0;
	}
	transport
	{
		kappa	16.0;
	}
	equationOfState
	{
		rho	7740.0;
	}
}
