FoamFile
{
	version	2.0;
	format	ascii;
	class	dictionary;
	location	"system";
	object	createPatchDict;
}
pointSync	false;
patches	(
	{
		name	heater;
		patchInfo
		{
			type	wall;
		}
		constructFrom	patches;
		patches	(heater_face_1 heater_face_2 heater_face_3 heater_face_4 heater_face_5 heater_face_6 heater_face_7 heater_face_8 heater_face_9 heater_face_10 heater_face_11 heater_face_12 heater_face_13 heater_face_14 heater_face_15 heater_face_16 heater_face_17 heater_face_18 heater_face_19 heater_face_20 heater_face_21 heater_face_22 heater_face_23 heater_face_24 heater_face_25 heater_face_26 heater_face_27 heater_face_28 heater_face_29 heater_face_30 heater_face_31 heater_face_32 heater_face_33 heater_face_34 heater_face_35 heater_face_36 heater_face_37 heater_face_38 heater_face_39 heater_face_40 heater_face_41 heater_face_42 heater_face_43 heater_face_44 heater_face_45 heater_face_46 heater_face_47 heater_face_48 heater_face_49 heater_face_50 heater_face_51 heater_face_52 heater_face_53 heater_face_54 heater_face_55 heater_face_56 heater_face_57 heater_face_58 heater_face_59 heater_face_60 heater_face_61 heater_face_62 heater_face_63 heater_face_64 heater_face_65 heater_face_66 heater_face_67 heater_face_68 heater_face_69 heater_face_70 heater_face_71 heater_face_72 heater_face_73 heater_face_74 heater_face_75 heater_face_76 heater_face_77 heater_face_78 heater_face_79 heater_face_80 heater_face_81 heater_face_82 heater_face_83 heater_face_84 heater_face_85 heater_face_86 heater_face_87 heater_face_88 heater_face_89 heater_face_90 heater_face_91 heater_face_92 heater_face_93 heater_face_94 heater_face_95 heater_face_96 heater_face_97 heater_face_98 heater_face_99 heater_face_100 heater_face_101 heater_face_102 heater_face_103 heater_face_104 heater_face_105 heater_face_106 heater_face_107 heater_face_108 heater_face_109 heater_face_110 heater_face_111 heater_face_112 heater_face_113 heater_face_114 heater_face_115 heater_face_116 heater_face_117 heater_face_118 heater_face_119 heater_face_120 heater_face_121 heater_face_122 heater_face_123 heater_face_124 heater_face_125 heater_face_126 heater_face_127 heater_face_128 heater_face_129 heater_face_130 heater_face_131 heater_face_132 heater_face_133 heater_face_134 heater_face_135 heater_face_136 heater_face_137 heater_face_138 heater_face_139 heater_face_140 heater_face_141 heater_face_142 heater_face_143 heater_face_144 heater_face_145 heater_face_146 heater_face_147 heater_face_148 heater_face_149 heater_face_150 heater_face_151 heater_face_152 heater_face_153 heater_face_154 heater_face_155 heater_face_156 heater_face_157 heater_face_158 heater_face_159 heater_face_160 heater_face_161 heater_face_162 heater_face_163 heater_face_164 heater_face_165 heater_face_166 heater_face_167 heater_face_168 heater_face_169 heater_face_170 heater_face_171 heater_face_172 heater_face_173 heater_face_174 heater_face_175 heater_face_176 heater_face_177 heater_face_178 heater_face_179 heater_face_180 heater_face_181 heater_face_182 heater_face_183 heater_face_184 heater_face_185 heater_face_186 heater_face_187 heater_face_188 heater_face_189 heater_face_190 heater_face_191 heater_face_192 heater_face_193 heater_face_194 heater_face_195 heater_face_196 heater_face_197 heater_face_198 heater_face_199 heater_face_200 heater_face_201 heater_face_202 heater_face_203 heater_face_204 heater_face_205 heater_face_206 heater_face_207 heater_face_208 heater_face_209 heater_face_210 heater_face_211 heater_face_212 heater_face_213 heater_face_214 heater_face_215 heater_face_216 heater_face_217 heater_face_218 heater_face_219 heater_face_220 heater_face_221 heater_face_222 heater_face_223 heater_face_224 heater_face_225 heater_face_226 heater_face_227 heater_face_228 heater_face_229 heater_face_230 heater_face_231 heater_face_232 heater_face_233 heater_face_234 heater_face_235 heater_face_236 heater_face_237 heater_face_238 heater_face_239 heater_face_240 heater_face_241 heater_face_242 heater_face_243 heater_face_244 heater_face_245 heater_face_246 heater_face_247 heater_face_248 heater_face_249 heater_face_250 heater_face_251 heater_face_252 heater_face_253 heater_face_254 heater_face_255 heater_face_256 heater_face_257 heater_face_258 heater_face_259 heater_face_260 heater_face_261 heater_face_262 heater_face_263 heater_face_264 heater_face_265 heater_face_266 heater_face_267 heater_face_268 heater_face_269 heater_face_270 heater_face_271 heater_face_272 heater_face_273 heater_face_274 heater_face_275 heater_face_276 heater_face_277 heater_face_278 heater_face_279 heater_face_280 heater_face_281 heater_face_282 heater_face_283 heater_face_284 heater_face_285 heater_face_286 heater_face_287 heater_face_288 heater_face_289 heater_face_290 heater_face_291 heater_face_292 heater_face_293 heater_face_294 heater_face_295 heater_face_296 heater_face_297 heater_face_298 heater_face_299 heater_face_300 heater_face_301 heater_face_302 heater_face_303 heater_face_304 heater_face_305 heater_face_306 heater_face_307 heater_face_308 heater_face_309 heater_face_310 heater_face_311 heater_face_312 heater_face_313 heater_face_314 heater_face_315 heater_face_316 heater_face_317 heater_face_318 heater_face_319 heater_face_320 heater_face_321 heater_face_322 heater_face_323 heater_face_324 heater_face_325 heater_face_326 heater_face_327 heater_face_328 heater_face_329 heater_face_330 heater_face_331 heater_face_332 heater_face_333 heater_face_334 heater_face_335 heater_face_336 heater_face_337 heater_face_338 heater_face_339 heater_face_340 heater_face_341 heater_face_342 heater_face_343 heater_face_344 heater_face_345 heater_face_346 heater_face_347 heater_face_348 heater_face_349 heater_face_350 heater_face_351 heater_face_352 heater_face_353 heater_face_354 heater_face_355 heater_face_356 heater_face_357 heater_face_358 heater_face_359 heater_face_360 heater_face_361 heater_face_362 heater_face_363 heater_face_364 heater_face_365 heater_face_366 heater_face_367 heater_face_368 heater_face_369 heater_face_370 heater_face_371 heater_face_372 heater_face_373 heater_face_374 heater_face_375 heater_face_376 heater_face_377 heater_face_378 heater_face_379 heater_face_380 heater_face_381 heater_face_382 heater_face_383 heater_face_384 heater_face_385 heater_face_386 heater_face_387 heater_face_388 heater_face_389 heater_face_390 heater_face_391 heater_face_392 heater_face_393 heater_face_394 heater_face_395 heater_face_396 heater_face_397 heater_face_398 heater_face_399 heater_face_400 heater_face_401 heater_face_402 heater_face_403 heater_face_404 heater_face_405 heater_face_406 heater_face_407 heater_face_408 heater_face_409 heater_face_410 heater_face_411 heater_face_412 heater_face_413 heater_face_414 heater_face_415 heater_face_416 heater_face_417 heater_face_418 heater_face_419 heater_face_420 heater_face_421 heater_face_422 heater_face_423 heater_face_424 heater_face_425 heater_face_426 heater_face_427 heater_face_428 heater_face_429 heater_face_430 heater_face_431 heater_face_432 heater_face_433 heater_face_434 heater_face_435 heater_face_436 heater_face_437 heater_face_438 heater_face_439 heater_face_440 heater_face_441 heater_face_442 heater_face_443 heater_face_444 heater_face_445 heater_face_446 heater_face_447 heater_face_448 heater_face_449 heater_face_450 heater_face_451 heater_face_452 heater_face_453 heater_face_454 heater_face_455 heater_face_456 heater_face_457 heater_face_458 heater_face_459 heater_face_460 heater_face_461 heater_face_462 heater_face_463 heater_face_464 heater_face_465 heater_face_466 heater_face_467 heater_face_468 heater_face_469 heater_face_470 heater_face_471 heater_face_472 heater_face_473 heater_face_474 heater_face_475 heater_face_476 heater_face_477 heater_face_478 heater_face_479 heater_face_480 heater_face_481 heater_face_482 heater_face_483 heater_face_484 heater_face_485 heater_face_486 heater_face_487 heater_face_488 heater_face_489 heater_face_490 heater_face_491 heater_face_492 heater_face_493 heater_face_494 heater_face_495 heater_face_496 heater_face_497 heater_face_498 heater_face_499 heater_face_500 heater_face_501 heater_face_502 heater_face_503 heater_face_504 heater_face_505 heater_face_506 heater_face_507 heater_face_508 heater_face_509 heater_face_510 heater_face_511 heater_face_512 heater_face_513 heater_face_514 heater_face_515 heater_face_516 heater_face_517 heater_face_518 heater_face_519 heater_face_520 heater_face_521 heater_face_522 heater_face_523 heater_face_524 heater_face_525 heater_face_526 heater_face_527 heater_face_528 heater_face_529 heater_face_530 heater_face_531 heater_face_532 heater_face_533 heater_face_534 heater_face_535 heater_face_536 heater_face_537 heater_face_538 heater_face_539 heater_face_540 heater_face_541 heater_face_542 heater_face_543 heater_face_544 heater_face_545 heater_face_546 heater_face_547 heater_face_548 heater_face_549 heater_face_550 heater_face_551 heater_face_552 heater_face_553 heater_face_554 heater_face_555 heater_face_556 heater_face_557 heater_face_558 heater_face_559 heater_face_560 heater_face_561 heater_face_562 heater_face_563 heater_face_564 heater_face_565 heater_face_566 heater_face_567 heater_face_568 heater_face_569 heater_face_570 heater_face_571 heater_face_572 heater_face_573 heater_face_574 heater_face_575 heater_face_576 heater_face_577 heater_face_578 heater_face_579 heater_face_580 heater_face_581 heater_face_582 heater_face_583 heater_face_584 heater_face_585 heater_face_586 heater_face_587 heater_face_588 heater_face_589 heater_face_590 heater_face_591 heater_face_592 heater_face_593 heater_face_594 heater_face_595 heater_face_596 heater_face_597 heater_face_598 heater_face_599 heater_face_600 heater_face_601 heater_face_602 heater_face_603 heater_face_604 heater_face_605 heater_face_606 heater_face_607 heater_face_608 heater_face_609 heater_face_610 heater_face_611 heater_face_612 heater_face_613 heater_face_614 heater_face_615 heater_face_616 heater_face_617 heater_face_618 heater_face_619 heater_face_620 heater_face_621 heater_face_622 heater_face_623 heater_face_624 heater_face_625 heater_face_626 heater_face_627 heater_face_628 heater_face_629 heater_face_630 heater_face_631 heater_face_632 heater_face_633 heater_face_634 heater_face_635 heater_face_636 heater_face_637 heater_face_638 heater_face_639 heater_face_640 heater_face_641 heater_face_642 heater_face_643 heater_face_644 heater_face_645 heater_face_646 heater_face_647 heater_face_648 heater_face_649 heater_face_650 heater_face_651 heater_face_652 heater_face_653 heater_face_654 heater_face_655 heater_face_656 heater_face_657 heater_face_658 heater_face_659 heater_face_660 heater_face_661 heater_face_662 heater_face_663 heater_face_664 heater_face_665 heater_face_666 heater_face_667 heater_face_668 heater_face_669 heater_face_670 heater_face_671 heater_face_672 heater_face_673 heater_face_674 heater_face_675 heater_face_676 heater_face_677 heater_face_678 heater_face_679 heater_face_680 heater_face_681 heater_face_682 heater_face_683 heater_face_684 heater_face_685 heater_face_686 heater_face_687 heater_face_688 heater_face_689 heater_face_690 heater_face_691 heater_face_692 heater_face_693 heater_face_694 heater_face_695 heater_face_696 heater_face_697 heater_face_698 heater_face_699 heater_face_700 heater_face_701 heater_face_702 heater_face_703 heater_face_704 heater_face_705 heater_face_706 heater_face_707 heater_face_708 heater_face_709 heater_face_710 heater_face_711 heater_face_712 heater_face_713 heater_face_714 heater_face_715 heater_face_716 heater_face_717 heater_face_718 heater_face_719 heater_face_720 heater_face_721 heater_face_722 heater_face_723 heater_face_724 heater_face_725 heater_face_726 heater_face_727 heater_face_728 heater_face_729 heater_face_730 heater_face_731 heater_face_732 heater_face_733 heater_face_734 heater_face_735 heater_face_736 heater_face_737 heater_face_738 heater_face_739 heater_face_740 heater_face_741 heater_face_742 heater_face_743 heater_face_744 heater_face_745 heater_face_746 heater_face_747 heater_face_748 heater_face_749 heater_face_750 heater_face_751 heater_face_752 heater_face_753 heater_face_754 heater_face_755 heater_face_756 heater_face_757 heater_face_758 heater_face_759 heater_face_760 heater_face_761 heater_face_762 heater_face_763 heater_face_764 heater_face_765 heater_face_766 heater_face_767 heater_face_768 heater_face_769 heater_face_770 heater_face_771 heater_face_772 heater_face_773 heater_face_774 heater_face_775 heater_face_776 heater_face_777 heater_face_778 heater_face_779 heater_face_780 heater_face_781 heater_face_782 heater_face_783 heater_face_784 heater_face_785 heater_face_786 heater_face_787 heater_face_788 heater_face_789 heater_face_790 heater_face_791 heater_face_792 heater_face_793 heater_face_794 heater_face_795 heater_face_796 heater_face_797 heater_face_798 heater_face_799 heater_face_800 heater_face_801 heater_face_802 heater_face_803 heater_face_804 heater_face_805 heater_face_806 heater_face_807 heater_face_808 heater_face_809 heater_face_810 heater_face_811 heater_face_812 heater_face_813 heater_face_814 heater_face_815 heater_face_816 heater_face_817 heater_face_818 heater_face_819 heater_face_820 heater_face_821 heater_face_822 heater_face_823 heater_face_824 heater_face_825 heater_face_826 heater_face_827 heater_face_828 heater_face_829 heater_face_830 heater_face_831 heater_face_832 heater_face_833 heater_face_834 heater_face_835 heater_face_836 heater_face_837 heater_face_838 heater_face_839 heater_face_840 heater_face_841 heater_face_842 heater_face_843 heater_face_844 heater_face_845 heater_face_846 heater_face_847 heater_face_848 heater_face_849 heater_face_850 heater_face_851 heater_face_852 heater_face_853 heater_face_854 heater_face_855 heater_face_856 heater_face_857 heater_face_858 heater_face_859 heater_face_860 heater_face_861 heater_face_862 heater_face_863 heater_face_864 heater_face_865 heater_face_866 heater_face_867 heater_face_868 heater_face_869 heater_face_870 heater_face_871 heater_face_872 heater_face_873 heater_face_874 heater_face_875 heater_face_876 heater_face_877 heater_face_878 heater_face_879 heater_face_880 heater_face_881 heater_face_882 heater_face_883 heater_face_884 heater_face_885 heater_face_886 heater_face_887 heater_face_888 heater_face_889 heater_face_890 heater_face_891 heater_face_892 heater_face_893 heater_face_894 heater_face_895 heater_face_896 heater_face_897 heater_face_898 heater_face_899 heater_face_900 heater_face_901 heater_face_902 heater_face_903 heater_face_904 heater_face_905 heater_face_906 heater_face_907 heater_face_908 heater_face_909 heater_face_910 heater_face_911 heater_face_912 heater_face_913 heater_face_914 heater_face_915 heater_face_916 heater_face_917 heater_face_918 heater_face_919 heater_face_920 heater_face_921 heater_face_922 heater_face_923 heater_face_924 heater_face_925 heater_face_926 heater_face_927 heater_face_928 heater_face_929 heater_face_930 heater_face_931 heater_face_932 heater_face_933 heater_face_934 heater_face_935 heater_face_936 heater_face_937 heater_face_938 heater_face_939 heater_face_940 heater_face_941 heater_face_942 heater_face_943 heater_face_944 heater_face_945 heater_face_946 heater_face_947 heater_face_948 heater_face_949 heater_face_950 heater_face_951 heater_face_952 heater_face_953 heater_face_954 heater_face_955 heater_face_956 heater_face_957 heater_face_958 heater_face_959 heater_face_960 heater_face_961 heater_face_962 heater_face_963 heater_face_964 heater_face_965 heater_face_966 heater_face_967 heater_face_968 heater_face_969 heater_face_970 heater_face_971 heater_face_972 heater_face_973 heater_face_974 heater_face_975 heater_face_976 heater_face_977 heater_face_978 heater_face_979 heater_face_980 heater_face_981 heater_face_982 heater_face_983 heater_face_984 heater_face_985 heater_face_986 heater_face_987 heater_face_988 heater_face_989 heater_face_990 heater_face_991 heater_face_992 heater_face_993 heater_face_994 heater_face_995 heater_face_996 heater_face_997 heater_face_998 heater_face_999 heater_face_1000 heater_face_1001 heater_face_1002 heater_face_1003 heater_face_1004 heater_face_1005 heater_face_1006 heater_face_1007 heater_face_1008 heater_face_1009 heater_face_1010 heater_face_1011 heater_face_1012 heater_face_1013 heater_face_1014 heater_face_1015 heater_face_1016 heater_face_1017 heater_face_1018 heater_face_1019 heater_face_1020 heater_face_1021 heater_face_1022 heater_face_1023 heater_face_1024 heater_face_1025 heater_face_1026 heater_face_1027 heater_face_1028 heater_face_1029 heater_face_1030 heater_face_1031 heater_face_1032 heater_face_1033 heater_face_1034 heater_face_1035 heater_face_1036 heater_face_1037 heater_face_1038 heater_face_1039 heater_face_1040 heater_face_1041 heater_face_1042 heater_face_1043 heater_face_1044 heater_face_1045 heater_face_1046 heater_face_1047 heater_face_1048 heater_face_1049 heater_face_1050);
	}

	{
		name	unite;
		patchInfo
		{
			type	wall;
		}
		constructFrom	patches;
		patches	(unite_face_1 unite_face_2 unite_face_3 unite_face_4 unite_face_5 unite_face_6 unite_face_7 unite_face_8 unite_face_9 unite_face_10 unite_face_11 unite_face_12 unite_face_13 unite_face_14 unite_face_15 unite_face_16 unite_face_17 unite_face_18 unite_face_19 unite_face_20 unite_face_21 unite_face_22 unite_face_23 unite_face_24 unite_face_25 unite_face_26 unite_face_27 unite_face_28 unite_face_29 unite_face_30 unite_face_31 unite_face_32 unite_face_33 unite_face_34 unite_face_35 unite_face_36 unite_face_37 unite_face_38 unite_face_39 unite_face_40 unite_face_41 unite_face_42 unite_face_43 unite_face_44 unite_face_45 unite_face_46 unite_face_47 unite_face_48 unite_face_49 unite_face_50 unite_face_51 unite_face_52 unite_face_53 unite_face_54 unite_face_55 unite_face_56 unite_face_57 unite_face_58 unite_face_59 unite_face_60 unite_face_61 unite_face_62 unite_face_63 unite_face_64 unite_face_65 unite_face_66 unite_face_67 unite_face_68 unite_face_69 unite_face_70 unite_face_71 unite_face_72 unite_face_73 unite_face_74 unite_face_75 unite_face_76 unite_face_77 unite_face_78 unite_face_79 unite_face_80 unite_face_81 unite_face_82 unite_face_83 unite_face_84 unite_face_85 unite_face_86 unite_face_87 unite_face_88 unite_face_89 unite_face_90 unite_face_91 unite_face_92 unite_face_93 unite_face_94 unite_face_95 unite_face_96 unite_face_97 unite_face_98 unite_face_99 unite_face_100 unite_face_101 unite_face_102 unite_face_103 unite_face_104 unite_face_105 unite_face_106 unite_face_107 unite_face_108 unite_face_109 unite_face_110 unite_face_111 unite_face_112 unite_face_113 unite_face_114 unite_face_115 unite_face_116 unite_face_117 unite_face_118 unite_face_119 unite_face_120 unite_face_121 unite_face_122 unite_face_123 unite_face_124 unite_face_125 unite_face_126 unite_face_127 unite_face_128 unite_face_129 unite_face_130 unite_face_131 unite_face_132 unite_face_133 unite_face_134 unite_face_135 unite_face_136 unite_face_137 unite_face_138 unite_face_139 unite_face_140 unite_face_141 unite_face_142 unite_face_143 unite_face_144 unite_face_145 unite_face_146 unite_face_147 unite_face_148 unite_face_149 unite_face_150 unite_face_151 unite_face_152 unite_face_153 unite_face_154 unite_face_155 unite_face_156 unite_face_157 unite_face_158 unite_face_159 unite_face_160 unite_face_161 unite_face_162 unite_face_163 unite_face_164 unite_face_165 unite_face_166 unite_face_167 unite_face_168 unite_face_169 unite_face_170 unite_face_171 unite_face_172 unite_face_173 unite_face_174 unite_face_175 unite_face_176 unite_face_177 unite_face_178 unite_face_179 unite_face_180 unite_face_181 unite_face_182 unite_face_183 unite_face_184 unite_face_185 unite_face_186 unite_face_187 unite_face_188 unite_face_189 unite_face_190 unite_face_191 unite_face_192 unite_face_193 unite_face_194 unite_face_195 unite_face_196 unite_face_197 unite_face_198 unite_face_199 unite_face_200 unite_face_201 unite_face_202 unite_face_203 unite_face_204 unite_face_205 unite_face_206 unite_face_207 unite_face_208 unite_face_209 unite_face_210 unite_face_211 unite_face_212 unite_face_213 unite_face_214 unite_face_215 unite_face_216 unite_face_217 unite_face_218 unite_face_219 unite_face_220 unite_face_221 unite_face_222 unite_face_223 unite_face_224 unite_face_225 unite_face_226 unite_face_227 unite_face_228 unite_face_229 unite_face_230 unite_face_231 unite_face_232 unite_face_233 unite_face_234 unite_face_235 unite_face_236 unite_face_237 unite_face_238 unite_face_239 unite_face_240 unite_face_241 unite_face_242 unite_face_243 unite_face_244 unite_face_245 unite_face_246 unite_face_247 unite_face_248 unite_face_249 unite_face_250 unite_face_251 unite_face_252 unite_face_253 unite_face_254 unite_face_255 unite_face_256 unite_face_257 unite_face_258 unite_face_259 unite_face_260 unite_face_261 unite_face_262 unite_face_263 unite_face_264 unite_face_265 unite_face_266 unite_face_267 unite_face_268 unite_face_269 unite_face_270 unite_face_271 unite_face_272 unite_face_273 unite_face_274 unite_face_275 unite_face_276 unite_face_277 unite_face_278 unite_face_279 unite_face_280 unite_face_281 unite_face_282 unite_face_283 unite_face_284 unite_face_285 unite_face_286 unite_face_287 unite_face_288 unite_face_289 unite_face_290 unite_face_291 unite_face_292 unite_face_293 unite_face_294 unite_face_295 unite_face_296 unite_face_297 unite_face_298 unite_face_299 unite_face_300 unite_face_301 unite_face_302 unite_face_303 unite_face_304 unite_face_305 unite_face_306 unite_face_307 unite_face_308 unite_face_309 unite_face_310 unite_face_311 unite_face_312 unite_face_313 unite_face_314 unite_face_315 unite_face_316 unite_face_317 unite_face_318 unite_face_319 unite_face_320 unite_face_321 unite_face_322 unite_face_323 unite_face_324 unite_face_325 unite_face_326 unite_face_327 unite_face_328 unite_face_329 unite_face_330 unite_face_331 unite_face_332 unite_face_333 unite_face_334 unite_face_335 unite_face_336 unite_face_337 unite_face_338 unite_face_339 unite_face_340 unite_face_341 unite_face_342 unite_face_343 unite_face_344 unite_face_345 unite_face_346 unite_face_347 unite_face_348 unite_face_349 unite_face_350 unite_face_351 unite_face_352 unite_face_353 unite_face_354 unite_face_355 unite_face_356 unite_face_357 unite_face_358 unite_face_359 unite_face_360 unite_face_361 unite_face_362 unite_face_363 unite_face_364 unite_face_365 unite_face_366 unite_face_367 unite_face_368 unite_face_369 unite_face_370 unite_face_371 unite_face_372 unite_face_373 unite_face_374 unite_face_375 unite_face_376 unite_face_377 unite_face_378 unite_face_379 unite_face_380 unite_face_381 unite_face_382 unite_face_383 unite_face_384 unite_face_385 unite_face_386 unite_face_387 unite_face_388 unite_face_389 unite_face_390 unite_face_391 unite_face_392 unite_face_393 unite_face_394 unite_face_395 unite_face_396 unite_face_397 unite_face_398 unite_face_399 unite_face_400 unite_face_401 unite_face_402 unite_face_403 unite_face_404 unite_face_405 unite_face_406 unite_face_407 unite_face_408 unite_face_409 unite_face_410 unite_face_411 unite_face_412 unite_face_413 unite_face_414 unite_face_415 unite_face_416 unite_face_417 unite_face_418 unite_face_419 unite_face_420 unite_face_421 unite_face_422 unite_face_423 unite_face_424 unite_face_425 unite_face_426 unite_face_427 unite_face_428 unite_face_429 unite_face_430 unite_face_431 unite_face_432 unite_face_433 unite_face_434 unite_face_435 unite_face_436 unite_face_437 unite_face_438 unite_face_439 unite_face_440 unite_face_441 unite_face_442 unite_face_443 unite_face_444 unite_face_445 unite_face_446 unite_face_447 unite_face_448 unite_face_449 unite_face_450 unite_face_451 unite_face_452 unite_face_453 unite_face_454 unite_face_455 unite_face_456 unite_face_457 unite_face_458 unite_face_459 unite_face_460 unite_face_461 unite_face_462 unite_face_463 unite_face_464 unite_face_465 unite_face_466 unite_face_467 unite_face_468 unite_face_469 unite_face_470 unite_face_471 unite_face_472 unite_face_473 unite_face_474 unite_face_475 unite_face_476 unite_face_477 unite_face_478 unite_face_479 unite_face_480 unite_face_481 unite_face_482 unite_face_483 unite_face_484 unite_face_485 unite_face_486 unite_face_487 unite_face_488 unite_face_489 unite_face_490 unite_face_491 unite_face_492 unite_face_493 unite_face_494 unite_face_495 unite_face_496 unite_face_497 unite_face_498 unite_face_499 unite_face_500 unite_face_501 unite_face_502 unite_face_503 unite_face_504 unite_face_505 unite_face_506 unite_face_507 unite_face_508 unite_face_509 unite_face_510 unite_face_511 unite_face_512 unite_face_513 unite_face_514 unite_face_515 unite_face_516 unite_face_517 unite_face_518 unite_face_519 unite_face_520 unite_face_521 unite_face_522 unite_face_523 unite_face_524 unite_face_525 unite_face_526 unite_face_527 unite_face_528 unite_face_529 unite_face_530 unite_face_531 unite_face_532 unite_face_533 unite_face_534 unite_face_535 unite_face_536 unite_face_537 unite_face_538 unite_face_539 unite_face_540 unite_face_541 unite_face_542 unite_face_543 unite_face_544 unite_face_545 unite_face_546 unite_face_547 unite_face_548 unite_face_549 unite_face_550 unite_face_551 unite_face_552 unite_face_553 unite_face_554 unite_face_555 unite_face_556 unite_face_557 unite_face_558 unite_face_559 unite_face_560 unite_face_561 unite_face_562 unite_face_563 unite_face_564 unite_face_565 unite_face_566 unite_face_567 unite_face_568 unite_face_569 unite_face_570 unite_face_571 unite_face_572 unite_face_573 unite_face_574 unite_face_575 unite_face_576 unite_face_577 unite_face_578 unite_face_579 unite_face_580 unite_face_581 unite_face_582 unite_face_583);
	}
);
