FoamFile
{
	version	2.0;
	class	dictionary;
	format	ascii;
	location	"system";
	object	snappyHexMeshDict;
}
castellatedMesh	true;
snap	true;
addLayers	false;
geometry
{
	heater.stl
	{
		type	triSurfaceMesh;
		simflowType	brep;
		topoType	compound;
		name	heater;
		faceGroups
		{
			face_1
			{
				name	heater;
			}
			face_2
			{
				name	heater;
			}
			face_3
			{
				name	heater;
			}
			face_4
			{
				name	heater;
			}
			face_5
			{
				name	heater;
			}
			face_6
			{
				name	heater;
			}
			face_7
			{
				name	heater;
			}
			face_8
			{
				name	heater;
			}
			face_9
			{
				name	heater;
			}
			face_10
			{
				name	heater;
			}
			face_11
			{
				name	heater;
			}
			face_12
			{
				name	heater;
			}
			face_13
			{
				name	heater;
			}
			face_14
			{
				name	heater;
			}
			face_15
			{
				name	heater;
			}
			face_16
			{
				name	heater;
			}
			face_17
			{
				name	heater;
			}
			face_18
			{
				name	heater;
			}
			face_19
			{
				name	heater;
			}
			face_20
			{
				name	heater;
			}
			face_21
			{
				name	heater;
			}
			face_22
			{
				name	heater;
			}
			face_23
			{
				name	heater;
			}
			face_24
			{
				name	heater;
			}
			face_25
			{
				name	heater;
			}
			face_26
			{
				name	heater;
			}
			face_27
			{
				name	heater;
			}
			face_28
			{
				name	heater;
			}
			face_29
			{
				name	heater;
			}
			face_30
			{
				name	heater;
			}
			face_31
			{
				name	heater;
			}
			face_32
			{
				name	heater;
			}
			face_33
			{
				name	heater;
			}
			face_34
			{
				name	heater;
			}
			face_35
			{
				name	heater;
			}
			face_36
			{
				name	heater;
			}
			face_37
			{
				name	heater;
			}
			face_38
			{
				name	heater;
			}
			face_39
			{
				name	heater;
			}
			face_40
			{
				name	heater;
			}
			face_41
			{
				name	heater;
			}
			face_42
			{
				name	heater;
			}
			face_43
			{
				name	heater;
			}
			face_44
			{
				name	heater;
			}
			face_45
			{
				name	heater;
			}
			face_46
			{
				name	heater;
			}
			face_47
			{
				name	heater;
			}
			face_48
			{
				name	heater;
			}
			face_49
			{
				name	heater;
			}
			face_50
			{
				name	heater;
			}
			face_51
			{
				name	heater;
			}
			face_52
			{
				name	heater;
			}
			face_53
			{
				name	heater;
			}
			face_54
			{
				name	heater;
			}
			face_55
			{
				name	heater;
			}
			face_56
			{
				name	heater;
			}
			face_57
			{
				name	heater;
			}
			face_58
			{
				name	heater;
			}
			face_59
			{
				name	heater;
			}
			face_60
			{
				name	heater;
			}
			face_61
			{
				name	heater;
			}
			face_62
			{
				name	heater;
			}
			face_63
			{
				name	heater;
			}
			face_64
			{
				name	heater;
			}
			face_65
			{
				name	heater;
			}
			face_66
			{
				name	heater;
			}
			face_67
			{
				name	heater;
			}
			face_68
			{
				name	heater;
			}
			face_69
			{
				name	heater;
			}
			face_70
			{
				name	heater;
			}
			face_71
			{
				name	heater;
			}
			face_72
			{
				name	heater;
			}
			face_73
			{
				name	heater;
			}
			face_74
			{
				name	heater;
			}
			face_75
			{
				name	heater;
			}
			face_76
			{
				name	heater;
			}
			face_77
			{
				name	heater;
			}
			face_78
			{
				name	heater;
			}
			face_79
			{
				name	heater;
			}
			face_80
			{
				name	heater;
			}
			face_81
			{
				name	heater;
			}
			face_82
			{
				name	heater;
			}
			face_83
			{
				name	heater;
			}
			face_84
			{
				name	heater;
			}
			face_85
			{
				name	heater;
			}
			face_86
			{
				name	heater;
			}
			face_87
			{
				name	heater;
			}
			face_88
			{
				name	heater;
			}
			face_89
			{
				name	heater;
			}
			face_90
			{
				name	heater;
			}
			face_91
			{
				name	heater;
			}
			face_92
			{
				name	heater;
			}
			face_93
			{
				name	heater;
			}
			face_94
			{
				name	heater;
			}
			face_95
			{
				name	heater;
			}
			face_96
			{
				name	heater;
			}
			face_97
			{
				name	heater;
			}
			face_98
			{
				name	heater;
			}
			face_99
			{
				name	heater;
			}
			face_100
			{
				name	heater;
			}
			face_101
			{
				name	heater;
			}
			face_102
			{
				name	heater;
			}
			face_103
			{
				name	heater;
			}
			face_104
			{
				name	heater;
			}
			face_105
			{
				name	heater;
			}
			face_106
			{
				name	heater;
			}
			face_107
			{
				name	heater;
			}
			face_108
			{
				name	heater;
			}
			face_109
			{
				name	heater;
			}
			face_110
			{
				name	heater;
			}
			face_111
			{
				name	heater;
			}
			face_112
			{
				name	heater;
			}
			face_113
			{
				name	heater;
			}
			face_114
			{
				name	heater;
			}
			face_115
			{
				name	heater;
			}
			face_116
			{
				name	heater;
			}
			face_117
			{
				name	heater;
			}
			face_118
			{
				name	heater;
			}
			face_119
			{
				name	heater;
			}
			face_120
			{
				name	heater;
			}
			face_121
			{
				name	heater;
			}
			face_122
			{
				name	heater;
			}
			face_123
			{
				name	heater;
			}
			face_124
			{
				name	heater;
			}
			face_125
			{
				name	heater;
			}
			face_126
			{
				name	heater;
			}
			face_127
			{
				name	heater;
			}
			face_128
			{
				name	heater;
			}
			face_129
			{
				name	heater;
			}
			face_130
			{
				name	heater;
			}
			face_131
			{
				name	heater;
			}
			face_132
			{
				name	heater;
			}
			face_133
			{
				name	heater;
			}
			face_134
			{
				name	heater;
			}
			face_135
			{
				name	heater;
			}
			face_136
			{
				name	heater;
			}
			face_137
			{
				name	heater;
			}
			face_138
			{
				name	heater;
			}
			face_139
			{
				name	heater;
			}
			face_140
			{
				name	heater;
			}
			face_141
			{
				name	heater;
			}
			face_142
			{
				name	heater;
			}
			face_143
			{
				name	heater;
			}
			face_144
			{
				name	heater;
			}
			face_145
			{
				name	heater;
			}
			face_146
			{
				name	heater;
			}
			face_147
			{
				name	heater;
			}
			face_148
			{
				name	heater;
			}
			face_149
			{
				name	heater;
			}
			face_150
			{
				name	heater;
			}
			face_151
			{
				name	heater;
			}
			face_152
			{
				name	heater;
			}
			face_153
			{
				name	heater;
			}
			face_154
			{
				name	heater;
			}
			face_155
			{
				name	heater;
			}
			face_156
			{
				name	heater;
			}
			face_157
			{
				name	heater;
			}
			face_158
			{
				name	heater;
			}
			face_159
			{
				name	heater;
			}
			face_160
			{
				name	heater;
			}
			face_161
			{
				name	heater;
			}
			face_162
			{
				name	heater;
			}
			face_163
			{
				name	heater;
			}
			face_164
			{
				name	heater;
			}
			face_165
			{
				name	heater;
			}
			face_166
			{
				name	heater;
			}
			face_167
			{
				name	heater;
			}
			face_168
			{
				name	heater;
			}
			face_169
			{
				name	heater;
			}
			face_170
			{
				name	heater;
			}
			face_171
			{
				name	heater;
			}
			face_172
			{
				name	heater;
			}
			face_173
			{
				name	heater;
			}
			face_174
			{
				name	heater;
			}
			face_175
			{
				name	heater;
			}
			face_176
			{
				name	heater;
			}
			face_177
			{
				name	heater;
			}
			face_178
			{
				name	heater;
			}
			face_179
			{
				name	heater;
			}
			face_180
			{
				name	heater;
			}
			face_181
			{
				name	heater;
			}
			face_182
			{
				name	heater;
			}
			face_183
			{
				name	heater;
			}
			face_184
			{
				name	heater;
			}
			face_185
			{
				name	heater;
			}
			face_186
			{
				name	heater;
			}
			face_187
			{
				name	heater;
			}
			face_188
			{
				name	heater;
			}
			face_189
			{
				name	heater;
			}
			face_190
			{
				name	heater;
			}
			face_191
			{
				name	heater;
			}
			face_192
			{
				name	heater;
			}
			face_193
			{
				name	heater;
			}
			face_194
			{
				name	heater;
			}
			face_195
			{
				name	heater;
			}
			face_196
			{
				name	heater;
			}
			face_197
			{
				name	heater;
			}
			face_198
			{
				name	heater;
			}
			face_199
			{
				name	heater;
			}
			face_200
			{
				name	heater;
			}
			face_201
			{
				name	heater;
			}
			face_202
			{
				name	heater;
			}
			face_203
			{
				name	heater;
			}
			face_204
			{
				name	heater;
			}
			face_205
			{
				name	heater;
			}
			face_206
			{
				name	heater;
			}
			face_207
			{
				name	heater;
			}
			face_208
			{
				name	heater;
			}
			face_209
			{
				name	heater;
			}
			face_210
			{
				name	heater;
			}
			face_211
			{
				name	heater;
			}
			face_212
			{
				name	heater;
			}
			face_213
			{
				name	heater;
			}
			face_214
			{
				name	heater;
			}
			face_215
			{
				name	heater;
			}
			face_216
			{
				name	heater;
			}
			face_217
			{
				name	heater;
			}
			face_218
			{
				name	heater;
			}
			face_219
			{
				name	heater;
			}
			face_220
			{
				name	heater;
			}
			face_221
			{
				name	heater;
			}
			face_222
			{
				name	heater;
			}
			face_223
			{
				name	heater;
			}
			face_224
			{
				name	heater;
			}
			face_225
			{
				name	heater;
			}
			face_226
			{
				name	heater;
			}
			face_227
			{
				name	heater;
			}
			face_228
			{
				name	heater;
			}
			face_229
			{
				name	heater;
			}
			face_230
			{
				name	heater;
			}
			face_231
			{
				name	heater;
			}
			face_232
			{
				name	heater;
			}
			face_233
			{
				name	heater;
			}
			face_234
			{
				name	heater;
			}
			face_235
			{
				name	heater;
			}
			face_236
			{
				name	heater;
			}
			face_237
			{
				name	heater;
			}
			face_238
			{
				name	heater;
			}
			face_239
			{
				name	heater;
			}
			face_240
			{
				name	heater;
			}
			face_241
			{
				name	heater;
			}
			face_242
			{
				name	heater;
			}
			face_243
			{
				name	heater;
			}
			face_244
			{
				name	heater;
			}
			face_245
			{
				name	heater;
			}
			face_246
			{
				name	heater;
			}
			face_247
			{
				name	heater;
			}
			face_248
			{
				name	heater;
			}
			face_249
			{
				name	heater;
			}
			face_250
			{
				name	heater;
			}
			face_251
			{
				name	heater;
			}
			face_252
			{
				name	heater;
			}
			face_253
			{
				name	heater;
			}
			face_254
			{
				name	heater;
			}
			face_255
			{
				name	heater;
			}
			face_256
			{
				name	heater;
			}
			face_257
			{
				name	heater;
			}
			face_258
			{
				name	heater;
			}
			face_259
			{
				name	heater;
			}
			face_260
			{
				name	heater;
			}
			face_261
			{
				name	heater;
			}
			face_262
			{
				name	heater;
			}
			face_263
			{
				name	heater;
			}
			face_264
			{
				name	heater;
			}
			face_265
			{
				name	heater;
			}
			face_266
			{
				name	heater;
			}
			face_267
			{
				name	heater;
			}
			face_268
			{
				name	heater;
			}
			face_269
			{
				name	heater;
			}
			face_270
			{
				name	heater;
			}
			face_271
			{
				name	heater;
			}
			face_272
			{
				name	heater;
			}
			face_273
			{
				name	heater;
			}
			face_274
			{
				name	heater;
			}
			face_275
			{
				name	heater;
			}
			face_276
			{
				name	heater;
			}
			face_277
			{
				name	heater;
			}
			face_278
			{
				name	heater;
			}
			face_279
			{
				name	heater;
			}
			face_280
			{
				name	heater;
			}
			face_281
			{
				name	heater;
			}
			face_282
			{
				name	heater;
			}
			face_283
			{
				name	heater;
			}
			face_284
			{
				name	heater;
			}
			face_285
			{
				name	heater;
			}
			face_286
			{
				name	heater;
			}
			face_287
			{
				name	heater;
			}
			face_288
			{
				name	heater;
			}
			face_289
			{
				name	heater;
			}
			face_290
			{
				name	heater;
			}
			face_291
			{
				name	heater;
			}
			face_292
			{
				name	heater;
			}
			face_293
			{
				name	heater;
			}
			face_294
			{
				name	heater;
			}
			face_295
			{
				name	heater;
			}
			face_296
			{
				name	heater;
			}
			face_297
			{
				name	heater;
			}
			face_298
			{
				name	heater;
			}
			face_299
			{
				name	heater;
			}
			face_300
			{
				name	heater;
			}
			face_301
			{
				name	heater;
			}
			face_302
			{
				name	heater;
			}
			face_303
			{
				name	heater;
			}
			face_304
			{
				name	heater;
			}
			face_305
			{
				name	heater;
			}
			face_306
			{
				name	heater;
			}
			face_307
			{
				name	heater;
			}
			face_308
			{
				name	heater;
			}
			face_309
			{
				name	heater;
			}
			face_310
			{
				name	heater;
			}
			face_311
			{
				name	heater;
			}
			face_312
			{
				name	heater;
			}
			face_313
			{
				name	heater;
			}
			face_314
			{
				name	heater;
			}
			face_315
			{
				name	heater;
			}
			face_316
			{
				name	heater;
			}
			face_317
			{
				name	heater;
			}
			face_318
			{
				name	heater;
			}
			face_319
			{
				name	heater;
			}
			face_320
			{
				name	heater;
			}
			face_321
			{
				name	heater;
			}
			face_322
			{
				name	heater;
			}
			face_323
			{
				name	heater;
			}
			face_324
			{
				name	heater;
			}
			face_325
			{
				name	heater;
			}
			face_326
			{
				name	heater;
			}
			face_327
			{
				name	heater;
			}
			face_328
			{
				name	heater;
			}
			face_329
			{
				name	heater;
			}
			face_330
			{
				name	heater;
			}
			face_331
			{
				name	heater;
			}
			face_332
			{
				name	heater;
			}
			face_333
			{
				name	heater;
			}
			face_334
			{
				name	heater;
			}
			face_335
			{
				name	heater;
			}
			face_336
			{
				name	heater;
			}
			face_337
			{
				name	heater;
			}
			face_338
			{
				name	heater;
			}
			face_339
			{
				name	heater;
			}
			face_340
			{
				name	heater;
			}
			face_341
			{
				name	heater;
			}
			face_342
			{
				name	heater;
			}
			face_343
			{
				name	heater;
			}
			face_344
			{
				name	heater;
			}
			face_345
			{
				name	heater;
			}
			face_346
			{
				name	heater;
			}
			face_347
			{
				name	heater;
			}
			face_348
			{
				name	heater;
			}
			face_349
			{
				name	heater;
			}
			face_350
			{
				name	heater;
			}
			face_351
			{
				name	heater;
			}
			face_352
			{
				name	heater;
			}
			face_353
			{
				name	heater;
			}
			face_354
			{
				name	heater;
			}
			face_355
			{
				name	heater;
			}
			face_356
			{
				name	heater;
			}
			face_357
			{
				name	heater;
			}
			face_358
			{
				name	heater;
			}
			face_359
			{
				name	heater;
			}
			face_360
			{
				name	heater;
			}
			face_361
			{
				name	heater;
			}
			face_362
			{
				name	heater;
			}
			face_363
			{
				name	heater;
			}
			face_364
			{
				name	heater;
			}
			face_365
			{
				name	heater;
			}
			face_366
			{
				name	heater;
			}
			face_367
			{
				name	heater;
			}
			face_368
			{
				name	heater;
			}
			face_369
			{
				name	heater;
			}
			face_370
			{
				name	heater;
			}
			face_371
			{
				name	heater;
			}
			face_372
			{
				name	heater;
			}
			face_373
			{
				name	heater;
			}
			face_374
			{
				name	heater;
			}
			face_375
			{
				name	heater;
			}
			face_376
			{
				name	heater;
			}
			face_377
			{
				name	heater;
			}
			face_378
			{
				name	heater;
			}
			face_379
			{
				name	heater;
			}
			face_380
			{
				name	heater;
			}
			face_381
			{
				name	heater;
			}
			face_382
			{
				name	heater;
			}
			face_383
			{
				name	heater;
			}
			face_384
			{
				name	heater;
			}
			face_385
			{
				name	heater;
			}
			face_386
			{
				name	heater;
			}
			face_387
			{
				name	heater;
			}
			face_388
			{
				name	heater;
			}
			face_389
			{
				name	heater;
			}
			face_390
			{
				name	heater;
			}
			face_391
			{
				name	heater;
			}
			face_392
			{
				name	heater;
			}
			face_393
			{
				name	heater;
			}
			face_394
			{
				name	heater;
			}
			face_395
			{
				name	heater;
			}
			face_396
			{
				name	heater;
			}
			face_397
			{
				name	heater;
			}
			face_398
			{
				name	heater;
			}
			face_399
			{
				name	heater;
			}
			face_400
			{
				name	heater;
			}
			face_401
			{
				name	heater;
			}
			face_402
			{
				name	heater;
			}
			face_403
			{
				name	heater;
			}
			face_404
			{
				name	heater;
			}
			face_405
			{
				name	heater;
			}
			face_406
			{
				name	heater;
			}
			face_407
			{
				name	heater;
			}
			face_408
			{
				name	heater;
			}
			face_409
			{
				name	heater;
			}
			face_410
			{
				name	heater;
			}
			face_411
			{
				name	heater;
			}
			face_412
			{
				name	heater;
			}
			face_413
			{
				name	heater;
			}
			face_414
			{
				name	heater;
			}
			face_415
			{
				name	heater;
			}
			face_416
			{
				name	heater;
			}
			face_417
			{
				name	heater;
			}
			face_418
			{
				name	heater;
			}
			face_419
			{
				name	heater;
			}
			face_420
			{
				name	heater;
			}
			face_421
			{
				name	heater;
			}
			face_422
			{
				name	heater;
			}
			face_423
			{
				name	heater;
			}
			face_424
			{
				name	heater;
			}
			face_425
			{
				name	heater;
			}
			face_426
			{
				name	heater;
			}
			face_427
			{
				name	heater;
			}
			face_428
			{
				name	heater;
			}
			face_429
			{
				name	heater;
			}
			face_430
			{
				name	heater;
			}
			face_431
			{
				name	heater;
			}
			face_432
			{
				name	heater;
			}
			face_433
			{
				name	heater;
			}
			face_434
			{
				name	heater;
			}
			face_435
			{
				name	heater;
			}
			face_436
			{
				name	heater;
			}
			face_437
			{
				name	heater;
			}
			face_438
			{
				name	heater;
			}
			face_439
			{
				name	heater;
			}
			face_440
			{
				name	heater;
			}
			face_441
			{
				name	heater;
			}
			face_442
			{
				name	heater;
			}
			face_443
			{
				name	heater;
			}
			face_444
			{
				name	heater;
			}
			face_445
			{
				name	heater;
			}
			face_446
			{
				name	heater;
			}
			face_447
			{
				name	heater;
			}
			face_448
			{
				name	heater;
			}
			face_449
			{
				name	heater;
			}
			face_450
			{
				name	heater;
			}
			face_451
			{
				name	heater;
			}
			face_452
			{
				name	heater;
			}
			face_453
			{
				name	heater;
			}
			face_454
			{
				name	heater;
			}
			face_455
			{
				name	heater;
			}
			face_456
			{
				name	heater;
			}
			face_457
			{
				name	heater;
			}
			face_458
			{
				name	heater;
			}
			face_459
			{
				name	heater;
			}
			face_460
			{
				name	heater;
			}
			face_461
			{
				name	heater;
			}
			face_462
			{
				name	heater;
			}
			face_463
			{
				name	heater;
			}
			face_464
			{
				name	heater;
			}
			face_465
			{
				name	heater;
			}
			face_466
			{
				name	heater;
			}
			face_467
			{
				name	heater;
			}
			face_468
			{
				name	heater;
			}
			face_469
			{
				name	heater;
			}
			face_470
			{
				name	heater;
			}
			face_471
			{
				name	heater;
			}
			face_472
			{
				name	heater;
			}
			face_473
			{
				name	heater;
			}
			face_474
			{
				name	heater;
			}
			face_475
			{
				name	heater;
			}
			face_476
			{
				name	heater;
			}
			face_477
			{
				name	heater;
			}
			face_478
			{
				name	heater;
			}
			face_479
			{
				name	heater;
			}
			face_480
			{
				name	heater;
			}
			face_481
			{
				name	heater;
			}
			face_482
			{
				name	heater;
			}
			face_483
			{
				name	heater;
			}
			face_484
			{
				name	heater;
			}
			face_485
			{
				name	heater;
			}
			face_486
			{
				name	heater;
			}
			face_487
			{
				name	heater;
			}
			face_488
			{
				name	heater;
			}
			face_489
			{
				name	heater;
			}
			face_490
			{
				name	heater;
			}
			face_491
			{
				name	heater;
			}
			face_492
			{
				name	heater;
			}
			face_493
			{
				name	heater;
			}
			face_494
			{
				name	heater;
			}
			face_495
			{
				name	heater;
			}
			face_496
			{
				name	heater;
			}
			face_497
			{
				name	heater;
			}
			face_498
			{
				name	heater;
			}
			face_499
			{
				name	heater;
			}
			face_500
			{
				name	heater;
			}
			face_501
			{
				name	heater;
			}
			face_502
			{
				name	heater;
			}
			face_503
			{
				name	heater;
			}
			face_504
			{
				name	heater;
			}
			face_505
			{
				name	heater;
			}
			face_506
			{
				name	heater;
			}
			face_507
			{
				name	heater;
			}
			face_508
			{
				name	heater;
			}
			face_509
			{
				name	heater;
			}
			face_510
			{
				name	heater;
			}
			face_511
			{
				name	heater;
			}
			face_512
			{
				name	heater;
			}
			face_513
			{
				name	heater;
			}
			face_514
			{
				name	heater;
			}
			face_515
			{
				name	heater;
			}
			face_516
			{
				name	heater;
			}
			face_517
			{
				name	heater;
			}
			face_518
			{
				name	heater;
			}
			face_519
			{
				name	heater;
			}
			face_520
			{
				name	heater;
			}
			face_521
			{
				name	heater;
			}
			face_522
			{
				name	heater;
			}
			face_523
			{
				name	heater;
			}
			face_524
			{
				name	heater;
			}
			face_525
			{
				name	heater;
			}
			face_526
			{
				name	heater;
			}
			face_527
			{
				name	heater;
			}
			face_528
			{
				name	heater;
			}
			face_529
			{
				name	heater;
			}
			face_530
			{
				name	heater;
			}
			face_531
			{
				name	heater;
			}
			face_532
			{
				name	heater;
			}
			face_533
			{
				name	heater;
			}
			face_534
			{
				name	heater;
			}
			face_535
			{
				name	heater;
			}
			face_536
			{
				name	heater;
			}
			face_537
			{
				name	heater;
			}
			face_538
			{
				name	heater;
			}
			face_539
			{
				name	heater;
			}
			face_540
			{
				name	heater;
			}
			face_541
			{
				name	heater;
			}
			face_542
			{
				name	heater;
			}
			face_543
			{
				name	heater;
			}
			face_544
			{
				name	heater;
			}
			face_545
			{
				name	heater;
			}
			face_546
			{
				name	heater;
			}
			face_547
			{
				name	heater;
			}
			face_548
			{
				name	heater;
			}
			face_549
			{
				name	heater;
			}
			face_550
			{
				name	heater;
			}
			face_551
			{
				name	heater;
			}
			face_552
			{
				name	heater;
			}
			face_553
			{
				name	heater;
			}
			face_554
			{
				name	heater;
			}
			face_555
			{
				name	heater;
			}
			face_556
			{
				name	heater;
			}
			face_557
			{
				name	heater;
			}
			face_558
			{
				name	heater;
			}
			face_559
			{
				name	heater;
			}
			face_560
			{
				name	heater;
			}
			face_561
			{
				name	heater;
			}
			face_562
			{
				name	heater;
			}
			face_563
			{
				name	heater;
			}
			face_564
			{
				name	heater;
			}
			face_565
			{
				name	heater;
			}
			face_566
			{
				name	heater;
			}
			face_567
			{
				name	heater;
			}
			face_568
			{
				name	heater;
			}
			face_569
			{
				name	heater;
			}
			face_570
			{
				name	heater;
			}
			face_571
			{
				name	heater;
			}
			face_572
			{
				name	heater;
			}
			face_573
			{
				name	heater;
			}
			face_574
			{
				name	heater;
			}
			face_575
			{
				name	heater;
			}
			face_576
			{
				name	heater;
			}
			face_577
			{
				name	heater;
			}
			face_578
			{
				name	heater;
			}
			face_579
			{
				name	heater;
			}
			face_580
			{
				name	heater;
			}
			face_581
			{
				name	heater;
			}
			face_582
			{
				name	heater;
			}
			face_583
			{
				name	heater;
			}
			face_584
			{
				name	heater;
			}
			face_585
			{
				name	heater;
			}
			face_586
			{
				name	heater;
			}
			face_587
			{
				name	heater;
			}
			face_588
			{
				name	heater;
			}
			face_589
			{
				name	heater;
			}
			face_590
			{
				name	heater;
			}
			face_591
			{
				name	heater;
			}
			face_592
			{
				name	heater;
			}
			face_593
			{
				name	heater;
			}
			face_594
			{
				name	heater;
			}
			face_595
			{
				name	heater;
			}
			face_596
			{
				name	heater;
			}
			face_597
			{
				name	heater;
			}
			face_598
			{
				name	heater;
			}
			face_599
			{
				name	heater;
			}
			face_600
			{
				name	heater;
			}
			face_601
			{
				name	heater;
			}
			face_602
			{
				name	heater;
			}
			face_603
			{
				name	heater;
			}
			face_604
			{
				name	heater;
			}
			face_605
			{
				name	heater;
			}
			face_606
			{
				name	heater;
			}
			face_607
			{
				name	heater;
			}
			face_608
			{
				name	heater;
			}
			face_609
			{
				name	heater;
			}
			face_610
			{
				name	heater;
			}
			face_611
			{
				name	heater;
			}
			face_612
			{
				name	heater;
			}
			face_613
			{
				name	heater;
			}
			face_614
			{
				name	heater;
			}
			face_615
			{
				name	heater;
			}
			face_616
			{
				name	heater;
			}
			face_617
			{
				name	heater;
			}
			face_618
			{
				name	heater;
			}
			face_619
			{
				name	heater;
			}
			face_620
			{
				name	heater;
			}
			face_621
			{
				name	heater;
			}
			face_622
			{
				name	heater;
			}
			face_623
			{
				name	heater;
			}
			face_624
			{
				name	heater;
			}
			face_625
			{
				name	heater;
			}
			face_626
			{
				name	heater;
			}
			face_627
			{
				name	heater;
			}
			face_628
			{
				name	heater;
			}
			face_629
			{
				name	heater;
			}
			face_630
			{
				name	heater;
			}
			face_631
			{
				name	heater;
			}
			face_632
			{
				name	heater;
			}
			face_633
			{
				name	heater;
			}
			face_634
			{
				name	heater;
			}
			face_635
			{
				name	heater;
			}
			face_636
			{
				name	heater;
			}
			face_637
			{
				name	heater;
			}
			face_638
			{
				name	heater;
			}
			face_639
			{
				name	heater;
			}
			face_640
			{
				name	heater;
			}
			face_641
			{
				name	heater;
			}
			face_642
			{
				name	heater;
			}
			face_643
			{
				name	heater;
			}
			face_644
			{
				name	heater;
			}
			face_645
			{
				name	heater;
			}
			face_646
			{
				name	heater;
			}
			face_647
			{
				name	heater;
			}
			face_648
			{
				name	heater;
			}
			face_649
			{
				name	heater;
			}
			face_650
			{
				name	heater;
			}
			face_651
			{
				name	heater;
			}
			face_652
			{
				name	heater;
			}
			face_653
			{
				name	heater;
			}
			face_654
			{
				name	heater;
			}
			face_655
			{
				name	heater;
			}
			face_656
			{
				name	heater;
			}
			face_657
			{
				name	heater;
			}
			face_658
			{
				name	heater;
			}
			face_659
			{
				name	heater;
			}
			face_660
			{
				name	heater;
			}
			face_661
			{
				name	heater;
			}
			face_662
			{
				name	heater;
			}
			face_663
			{
				name	heater;
			}
			face_664
			{
				name	heater;
			}
			face_665
			{
				name	heater;
			}
			face_666
			{
				name	heater;
			}
			face_667
			{
				name	heater;
			}
			face_668
			{
				name	heater;
			}
			face_669
			{
				name	heater;
			}
			face_670
			{
				name	heater;
			}
			face_671
			{
				name	heater;
			}
			face_672
			{
				name	heater;
			}
			face_673
			{
				name	heater;
			}
			face_674
			{
				name	heater;
			}
			face_675
			{
				name	heater;
			}
			face_676
			{
				name	heater;
			}
			face_677
			{
				name	heater;
			}
			face_678
			{
				name	heater;
			}
			face_679
			{
				name	heater;
			}
			face_680
			{
				name	heater;
			}
			face_681
			{
				name	heater;
			}
			face_682
			{
				name	heater;
			}
			face_683
			{
				name	heater;
			}
			face_684
			{
				name	heater;
			}
			face_685
			{
				name	heater;
			}
			face_686
			{
				name	heater;
			}
			face_687
			{
				name	heater;
			}
			face_688
			{
				name	heater;
			}
			face_689
			{
				name	heater;
			}
			face_690
			{
				name	heater;
			}
			face_691
			{
				name	heater;
			}
			face_692
			{
				name	heater;
			}
			face_693
			{
				name	heater;
			}
			face_694
			{
				name	heater;
			}
			face_695
			{
				name	heater;
			}
			face_696
			{
				name	heater;
			}
			face_697
			{
				name	heater;
			}
			face_698
			{
				name	heater;
			}
			face_699
			{
				name	heater;
			}
			face_700
			{
				name	heater;
			}
			face_701
			{
				name	heater;
			}
			face_702
			{
				name	heater;
			}
			face_703
			{
				name	heater;
			}
			face_704
			{
				name	heater;
			}
			face_705
			{
				name	heater;
			}
			face_706
			{
				name	heater;
			}
			face_707
			{
				name	heater;
			}
			face_708
			{
				name	heater;
			}
			face_709
			{
				name	heater;
			}
			face_710
			{
				name	heater;
			}
			face_711
			{
				name	heater;
			}
			face_712
			{
				name	heater;
			}
			face_713
			{
				name	heater;
			}
			face_714
			{
				name	heater;
			}
			face_715
			{
				name	heater;
			}
			face_716
			{
				name	heater;
			}
			face_717
			{
				name	heater;
			}
			face_718
			{
				name	heater;
			}
			face_719
			{
				name	heater;
			}
			face_720
			{
				name	heater;
			}
			face_721
			{
				name	heater;
			}
			face_722
			{
				name	heater;
			}
			face_723
			{
				name	heater;
			}
			face_724
			{
				name	heater;
			}
			face_725
			{
				name	heater;
			}
			face_726
			{
				name	heater;
			}
			face_727
			{
				name	heater;
			}
			face_728
			{
				name	heater;
			}
			face_729
			{
				name	heater;
			}
			face_730
			{
				name	heater;
			}
			face_731
			{
				name	heater;
			}
			face_732
			{
				name	heater;
			}
			face_733
			{
				name	heater;
			}
			face_734
			{
				name	heater;
			}
			face_735
			{
				name	heater;
			}
			face_736
			{
				name	heater;
			}
			face_737
			{
				name	heater;
			}
			face_738
			{
				name	heater;
			}
			face_739
			{
				name	heater;
			}
			face_740
			{
				name	heater;
			}
			face_741
			{
				name	heater;
			}
			face_742
			{
				name	heater;
			}
			face_743
			{
				name	heater;
			}
			face_744
			{
				name	heater;
			}
			face_745
			{
				name	heater;
			}
			face_746
			{
				name	heater;
			}
			face_747
			{
				name	heater;
			}
			face_748
			{
				name	heater;
			}
			face_749
			{
				name	heater;
			}
			face_750
			{
				name	heater;
			}
			face_751
			{
				name	heater;
			}
			face_752
			{
				name	heater;
			}
			face_753
			{
				name	heater;
			}
			face_754
			{
				name	heater;
			}
			face_755
			{
				name	heater;
			}
			face_756
			{
				name	heater;
			}
			face_757
			{
				name	heater;
			}
			face_758
			{
				name	heater;
			}
			face_759
			{
				name	heater;
			}
			face_760
			{
				name	heater;
			}
			face_761
			{
				name	heater;
			}
			face_762
			{
				name	heater;
			}
			face_763
			{
				name	heater;
			}
			face_764
			{
				name	heater;
			}
			face_765
			{