FoamFile
{
	version	2.0;
	format	ascii;
	class	polyBoundaryMesh;
	location	"constant/polyMesh";
	object	boundary;
}
1
(
	defaultFaces
	{
		type	patch;
		startFace	1719428;
		nFaces	102904;
	}
)